BPD597302-50M
*SPICE Netlist generated by Advanced Sim server on 7/18/2019 6:07:31 PM

*Schematic Netlist:

.SAVE 0


*Selected Circuit Analyses:
.TRAN 2E-8 5E-6 0 2E-8
.OP

.END
